** ----------------------------------------------------------
** CalculiX input deck -- auto-generated by run_fea.py
** Material       : pla  (E = 3500 MPa)
** Pressure load  : 0.0981 MPa
** Root nodes     : 252
** ----------------------------------------------------------
**
*INCLUDE, INPUT=fin_assembly_links_mesh.inp
**
*NSET, NSET=NFIXED_ROOT
1, 2, 11, 21, 38, 148, 149, 150, 151, 152, 153, 154, 155, 156, 157, 158
159, 160, 161, 162, 163, 164, 165, 166, 167, 168, 169, 170, 171, 172, 173, 174
175, 213, 214, 215, 328, 329, 330, 427, 428, 429, 430, 431, 432, 433, 434, 435
436, 437, 438, 439, 440, 441, 442, 443, 444, 445, 446, 447, 448, 449, 450, 451
452, 453, 1985, 1986, 1987, 1988, 1989, 1990, 1991, 1992, 1993, 1994, 1995, 1996, 1997, 1998
1999, 2000, 2001, 2002, 2003, 2004, 2005, 2006, 9433, 9434, 9435, 9436, 9437, 9438, 9439, 9440
9441, 9442, 9443, 9444, 9445, 9446, 9447, 9448, 9449, 9450, 9451, 9452, 9453, 9454, 9455, 9456
9457, 9458, 9459, 9460, 9461, 9462, 9463, 9464, 9465, 9466, 9467, 9468, 9469, 9470, 9471, 9472
9473, 9474, 9475, 9476, 9477, 9478, 9479, 9480, 9481, 9482, 9483, 9484, 9485, 9486, 9487, 9488
9489, 9490, 9491, 9492, 9493, 9494, 9495, 9496, 9497, 9498, 9499, 9500, 9501, 9502, 9503, 9504
9505, 9506, 9507, 9508, 9509, 9510, 9511, 9512, 9513, 9514, 9515, 9516, 9517, 9518, 9519, 9520
9521, 9522, 9523, 9524, 9525, 9526, 9527, 9528, 9529, 9530, 9531, 9532, 9533, 9534, 9535, 9536
9537, 9538, 9539, 9540, 9541, 9542, 9543, 9544, 9545, 9546, 9547, 9548, 9549, 9550, 9551, 9552
9553, 9554, 9555, 9556, 9557, 9558, 9559, 9560, 9561, 9562, 9563, 9564, 9565, 9566, 9567, 9568
9569, 9570, 9571, 9572, 9573, 9574, 9575, 9576, 9577, 9578, 9579, 9580, 9581, 9582, 9583, 9584
9585, 9586, 9587, 9588, 9589, 9590, 9591, 9592, 9593, 9594, 9595, 9596
*NSET, NSET=NLOAD_TIP
12, 13, 30, 144, 145, 146, 269, 270, 271, 390, 391, 392, 1191, 1192, 1193, 1194
1195, 1196, 1197, 1198, 1199, 1200, 1201, 1202, 1203, 1886, 1887, 1888, 1889, 1890, 1891, 1892
1893, 1894, 1895, 1896, 1897, 1898, 1899, 1900, 1901, 1902, 1903, 1904, 1905, 1906, 1907, 1908
1909, 1910, 1911, 1912, 1913, 1914, 1915, 1916, 1917, 1918, 1919, 1920, 1921, 1922, 1923, 1924
1925, 1926, 1927, 1928, 1929, 1930, 1931, 1932, 1933, 1934, 1935, 1936, 1937, 1938, 1939, 1940
1941, 1942, 1943, 1944, 1945, 1946, 1947, 1948, 7441, 7442, 7443, 7444, 7445, 7446, 7447, 7448
7449, 7450, 7451, 7452, 7453, 7454, 7455, 7456, 7457, 7458, 7459, 7460, 7461, 7462, 7463, 7464
7465, 7466, 7467, 7468, 7469, 7470, 7471, 7472, 7473, 7474, 7475, 7476, 7477, 7478, 7479, 7480
7481, 7482, 7483, 7484, 7485, 7486, 7487, 7488, 7489, 7490, 7491, 7492, 7493, 7494, 7495, 7496
7497, 7498, 7499, 7500, 7501, 7502, 7503, 7504, 7505, 7506, 7507, 7508, 7509, 7510, 7511, 7512
7513, 7514, 7515, 7516, 7517, 7518, 7519, 7520, 7521, 7522, 7523, 7524, 7525, 7526, 7527, 7528
7529, 7530, 7531, 7532, 7533, 7534, 7535, 7536, 7537, 7538, 7539, 7540, 7541, 7542, 7543, 7544
7545, 7546, 7547, 7548, 7549, 7550, 7551, 7552, 7553, 7554, 7555, 7556, 7557, 7558, 7559, 7560
7561, 7562, 7563, 7564, 7565, 7566, 7567, 7568, 7569, 7570, 7571, 7572, 7573, 7574, 7575, 7576
7577, 7578, 7579, 7580, 7581, 7582, 7583, 7584, 7585, 7586, 7587, 7588, 7589, 7590, 7591, 7592
7593, 7594, 7595, 7596, 7597, 7598, 7599, 7600, 7601, 7602, 7603, 7604
**
*MATERIAL, NAME=PLA
*ELASTIC
3500.0, 0.3600
*DENSITY
1.240000e-09
**
*SOLID SECTION, ELSET=EBODY, MATERIAL=PLA
**
*MATERIAL, NAME=DUMMY_SHELL
*ELASTIC
1.0, 0.3
*SHELL SECTION, ELSET=PLOAD_SURF, MATERIAL=DUMMY_SHELL
1e-5
**
** ============================================================
** STEP 1 -- Static bending under pressure load
** ============================================================
*STEP
*STATIC
**
** Fixed support at root rib
*BOUNDARY
NFIXED_ROOT, 1, 3, 0.0
**
** Hydrostatic pressure: 0.0981 MPa
*DLOAD
PLOAD_SURF, P, 9.810000e-02
**
** 450N compressive load (axial -Y direction) spread on top surface
*CLOAD
12, 2, -1.7857142857142858
13, 2, -1.7857142857142858
30, 2, -1.7857142857142858
144, 2, -1.7857142857142858
145, 2, -1.7857142857142858
146, 2, -1.7857142857142858
269, 2, -1.7857142857142858
270, 2, -1.7857142857142858
271, 2, -1.7857142857142858
390, 2, -1.7857142857142858
391, 2, -1.7857142857142858
392, 2, -1.7857142857142858
1191, 2, -1.7857142857142858
1192, 2, -1.7857142857142858
1193, 2, -1.7857142857142858
1194, 2, -1.7857142857142858
1195, 2, -1.7857142857142858
1196, 2, -1.7857142857142858
1197, 2, -1.7857142857142858
1198, 2, -1.7857142857142858
** ... 232 like lines cut
**
** -- Output requests ----------------------------------
*NODE FILE
U
*EL FILE
S, ENER
*NODE PRINT, NSET=NLOAD_TIP, TOTALS=YES
U
*EL PRINT, ELSET=EBODY, TOTALS=YES
ENER
*END STEP
