** ----------------------------------------------------------
** CalculiX input deck -- auto-generated by run_fea.py
** Material       : pla  (E = 3500 MPa)
** Pressure load  : 0.0981 MPa
** Root nodes     : 0
** ----------------------------------------------------------
**
*INCLUDE, INPUT=satvik_fin_fixed_mesh.inp
**
** WARNING: no root nodes -- fixed BC skipped
*NSET, NSET=NLOAD_TIP
74, 75, 77, 78, 79, 80, 85, 87, 88, 95, 97, 98, 99, 102, 140, 141
142, 143, 144, 145, 1660, 1661, 1662, 1663, 1664, 1795, 1796, 1797, 1941, 1942, 1943, 1978
1979, 1980, 1981, 1982, 2147, 2148, 2149, 2295, 2296, 2297, 2332, 2333, 2334, 2470, 2471, 2472
2960, 2961, 2962, 2963, 2964, 2965, 2966, 2967, 2968, 2969, 2970, 2971, 2972, 2973, 2974, 2975
2976, 2977, 2978, 2979, 2980, 3002, 3003, 3004, 3005, 3006, 3007, 3008, 3009, 3010, 3011, 3012
3013, 3014, 3015, 3016, 3017, 3018, 3019, 3020, 3021, 3022, 3023, 3024, 3025, 3026, 3027, 3028
3029, 3030, 3031, 3032, 3033, 3034, 3035, 3036, 3037, 3038, 3039, 3040, 3041, 3042, 3043, 3115
3116, 3117, 3118, 3119, 3120, 3121, 3122, 3123, 3124, 3125, 3126, 3127, 3128, 3129, 3130, 3131
3132, 3133, 3134, 3135, 3377, 3378, 3379, 3380, 3381, 3382, 3383, 3384, 3385, 3386, 3387, 3388
3389, 3390, 3391, 3392, 3393, 3394, 3395, 3396, 3397, 3398, 3399, 3400, 3401, 3402, 3403, 3404
3405, 3406, 3407, 3408, 3409, 3410, 3411, 3412, 3413, 3414, 3415, 3416, 3417, 3418, 3419, 3420
3421, 3422, 3423, 3424, 3425, 3426, 3427, 3428, 3429, 3430, 3431, 3432, 3433, 3434, 3435, 3436
3437, 3438, 3439, 3440, 3441, 3442, 3443, 3444, 3445, 3446, 3447, 3448, 3449, 3450, 3451, 3452
3453, 3454, 3455, 3456, 3457, 3458, 3459, 3460, 3461, 3462, 3463, 3464, 3465, 3466, 3467, 3468
3469, 3470, 3471, 3472, 20771, 20772, 20773, 20774, 20775, 20776, 20777, 20778, 20779, 20780, 20781, 20782
20783, 20784, 20785, 20786, 20787, 20788, 20789, 20790, 20791, 20792, 20793, 20794, 20795, 20796, 20797, 20798
20799, 20800, 20801, 20802, 20803, 20804, 20805, 20806, 20807, 20808, 20809, 20810, 20811, 20812, 20813, 20814
20815, 20816, 20817, 20818, 20819, 20820, 20821, 20822, 20823, 20824, 20825, 20826, 20827, 20828, 20829, 20830
20831, 20832, 20833, 20834, 20835, 20836, 20837, 20838, 20839, 20840, 20841, 20842, 20843, 20844, 20845, 20846
20847, 20848, 20849, 20850, 20851, 20852, 20853, 20854, 20855, 20856, 20857, 20858, 20859, 20860, 20861, 20862
20863, 20864, 20865, 20866, 20867, 20868, 20869, 20870, 20871, 20872, 20873, 20874, 20875, 20876, 20877, 20878
20879, 20880, 20881
**
*MATERIAL, NAME=PLA
*ELASTIC
3500.0, 0.3600
*DENSITY
1.240000e-09
**
*SOLID SECTION, ELSET=EBODY, MATERIAL=PLA
**
*MATERIAL, NAME=DUMMY_SHELL
*ELASTIC
1.0, 0.3
*SHELL SECTION, ELSET=PLOAD_SURF, MATERIAL=DUMMY_SHELL
1e-5
**
** ============================================================
** STEP 1 -- Static bending under pressure load
** ============================================================
*STEP
*STATIC
**
** Hydrostatic pressure: 0.0981 MPa
*DLOAD
PLOAD_SURF, P, 9.810000e-02
**
** 450N compressive load (axial -Y direction) spread on top surface
*CLOAD
74, 2, -1.3274336283185841
75, 2, -1.3274336283185841
77, 2, -1.3274336283185841
78, 2, -1.3274336283185841
79, 2, -1.3274336283185841
80, 2, -1.3274336283185841
85, 2, -1.3274336283185841
87, 2, -1.3274336283185841
88, 2, -1.3274336283185841
95, 2, -1.3274336283185841
97, 2, -1.3274336283185841
98, 2, -1.3274336283185841
99, 2, -1.3274336283185841
102, 2, -1.3274336283185841
140, 2, -1.3274336283185841
141, 2, -1.3274336283185841
142, 2, -1.3274336283185841
143, 2, -1.3274336283185841
144, 2, -1.3274336283185841
145, 2, -1.3274336283185841
** ... 319 like lines cut
**
** -- Output requests ----------------------------------
*NODE FILE
U
*EL FILE
S, ENER
*NODE PRINT, NSET=NLOAD_TIP, TOTALS=YES
U
*EL PRINT, ELSET=EBODY, TOTALS=YES
ENER
*END STEP
